Circuit: * \\courtenay.ecs.vuw.ac.nz\sukhadyla\GitHub\DClassAmp\opFilter\opFilter.asc

V2: both pins shorted together -- ignoring.
Direct Newton iteration for .op point succeeded.

Date: Thu Aug 12 16:15:03 2021
Total elapsed time: 0.038 seconds.

tnom = 27
temp = 27
method = modified trap
totiter = 2085
traniter = 2082
tranpoints = 1042
accept = 1042
rejected = 0
matrix size = 4
fillins = 0
solver = Normal
Matrix Compiler1: 118 bytes object code size  0.0/0.0/[0.0]
Matrix Compiler2: 242 bytes object code size  0.0/0.0/[0.0]

