Circuit: * \\courtenay.ecs.vuw.ac.nz\sukhadyla\GitHub\DClassAmp\opFilter\opFilter.asc

V2: both pins shorted together -- ignoring.

Date: Fri Aug 13 14:39:51 2021
Total elapsed time: 0.026 seconds.

tnom = 27
temp = 27
method = trap
totiter = 0
traniter = 0
tranpoints = 0
accept = 0
rejected = 0
matrix size = 4
fillins = 1
solver = Normal

